outputs/ieee_39_barras_new_england/network/ieee_39_barras_new_england_base.pwf
TITU
VALIDACAO IEEE 30 - MODELAGEM VIA TAP CHANGER
DBAR
(Num)OETGb(    nome    )Gl( V)( A)( Pg)( Qg)( Qn)( Qm)(Bc  )( Pl)( Ql)
    0 L  A1            1039 -13.5    0.0    0.0    0.0    0.0    0.0   97.6   44.2
    1 L  A2            1048  -9.7    0.0    0.0    0.0    0.0    0.0    0.0    0.0
    2 L  A3            1031 -12.2    0.0    0.0    0.0    0.0    0.0  322.0    2.4
    3 L  A4            1005 -12.6    0.0    0.0    0.0    0.0    0.0  500.0  184.0
    4 L  A5            1006 -11.2    0.0    0.0    0.0    0.0    0.0    0.0    0.0
    5 L  A6            1008 -10.4    0.0    0.0    0.0    0.0    0.0    0.0    0.0
    6 L  A7             998 -12.7    0.0    0.0    0.0    0.0    0.0  233.8   84.0
    7 L  A8             998 -13.3    0.0    0.0    0.0    0.0    0.0  522.0  176.6
    8 L  A9            1038 -14.1    0.0    0.0    0.0    0.0    0.0    6.5  -66.6
    9 L  A10           1018  -8.1    0.0    0.0    0.0    0.0    0.0    0.0    0.0
   10 L  A11           1013  -8.9    0.0    0.0    0.0    0.0    0.0    0.0    0.0
   11 L  A12           1001  -9.0    0.0    0.0    0.0    0.0    0.0    8.5   88.0
   12 L  A13           1015  -8.9    0.0    0.0    0.0    0.0    0.0    0.0    0.0
   13 L  A14           1012 -10.7    0.0    0.0    0.0    0.0    0.0    0.0    0.0
   14 L  A15           1016 -11.3    0.0    0.0    0.0    0.0    0.0  320.0  153.0
   15 L  A16           1033 -10.0    0.0    0.0    0.0    0.0    0.0  329.0   32.3
   16 L  A17           1034 -11.1    0.0    0.0    0.0    0.0    0.0    0.0    0.0
   17 L  A18           1032 -11.9    0.0    0.0    0.0    0.0    0.0  158.0   30.0
   18 L  A19           1050  -5.3    0.0    0.0    0.0    0.0    0.0    0.0    0.0
   19 L  A20            991  -6.7    0.0    0.0    0.0    0.0    0.0  680.0  103.0
   20 L  A21           1032  -7.6    0.0    0.0    0.0    0.0    0.0  274.0  115.0
   21 L  A22           1050  -3.1    0.0    0.0    0.0    0.0    0.0    0.0    0.0
   22 L  A23           1045  -3.3    0.0    0.0    0.0    0.0    0.0  247.5   84.6
   23 L  A24           1038  -9.8    0.0    0.0    0.0    0.0    0.0  308.6  -92.2
   24 L  A25           1058  -8.3    0.0    0.0    0.0    0.0    0.0  224.0   47.2
   25 L  A26           1053  -9.4    0.0    0.0    0.0    0.0    0.0  139.0   17.0
   26 L  A27           1038 -11.3    0.0    0.0    0.0    0.0    0.0  281.0   75.5
   27 L  A28           1050  -5.8    0.0    0.0    0.0    0.0    0.0  206.0   27.6
   28 L  A29           1050  -3.1    0.0    0.0    0.0    0.0    0.0  283.5   26.9
   29 L1 A30           1049  -7.3  250.0  159.9  140.0  400.0    0.0    0.0    0.0
   30 L2 A31            982   0.0  676.1  219.1 -100.0  300.0    0.0    9.2    4.6
   31 L1 A32            984  -0.1  650.0  204.6  150.0  300.0    0.0    0.0    0.0
   32 L1 A33            997  -0.1  632.0  105.9    0.0  250.0    0.0    0.0    0.0
   33 L1 A34           1012  -1.5  508.0  165.4    0.0  167.0    0.0    0.0    0.0
   34 L1 A35           1049   1.9  650.0  207.4 -100.0  300.0    0.0    0.0    0.0
   35 L1 A36           1063   4.6  560.0   98.3    0.0  240.0    0.0    0.0    0.0
   36 L1 A37           1027  -1.5  540.0   -2.9    0.0  250.0    0.0    0.0    0.0
   37 L1 A38           1026   4.0  830.0   18.7 -150.0  300.0    0.0    0.0    0.0
   38 L1 A39           1029 -14.5 1000.0   76.8 -100.0  300.0    0.0 1104.0  250.0
DLIN
(De )d O d(Pa )NcEP ( R% )( X% )(Mvar)(Tap)(Tmn)(Tmx)(Phs)(Bc  )(Cn)(Ce)Ns
    0     1   1        0.35   4.11  69.87
    0    38   1        0.10   2.50  75.00
    1     2   1        0.13   1.51  25.72
    1    24   1        0.70   0.86  14.60
    2     3   1        0.13   2.13  22.14
    2    17   1        0.11   1.33  21.38
    3     4   1        0.08   1.28  13.42
    3    13   1        0.08   1.29  13.82
    4     5   1        0.02   0.26   4.34
    4     7   1        0.08   1.12  14.76
    5     6   1        0.06   0.92  11.30
    5    10   1        0.07   0.82  13.89
    6     7   1        0.04   0.46   7.80
    7     8   1        0.23   3.63  38.04
    8    38   1        0.10   2.50 120.00
    9    10   1        0.04   0.43   7.29
    9    12   1        0.04   0.43   7.29
   12    13   1        0.09   1.01  17.23
   13    14   1        0.18   2.17  36.60
   14    15   1        0.09   0.94  17.10
   15    16   1        0.07   0.89  13.42
   15    18   1        0.16   1.95  30.40
   15    20   1        0.08   1.35  25.48
   15    23   1        0.03   0.59   6.80
   16    17   1        0.07   0.82  13.19
   16    26   1        0.13   1.73  32.16
   20    21   1        0.08   1.40  25.65
   21    22   1        0.06   0.96  18.46
   22    23   1        0.22   3.50  36.10
   22    35   1        0.05   2.72   0.00
   24    25   1        0.32   3.23  53.10
   25    26   1        0.14   1.47  23.96
   25    27   1        0.43   4.74  78.02
   25    28   1        0.57   6.25 102.90
   27    28   1        0.14   1.51  24.90
    1    29   1        0.00  16.29   0.00  1.025
    5    30   1        0.00  45.00   0.00  1.070
    9    31   1        0.00  18.00   0.00  1.070
   11    10   1        0.80  21.75   0.00  1.006
   11    12   1        0.80  21.75   0.00  1.006
   18    19   1        0.63  12.42   0.00  1.060
   18    32   1        0.63  12.78   0.00  1.070
   19    33   1        0.81  16.20   0.00  1.009
   21    34   1        0.00  12.87   0.00  1.025
   24    36   1        0.54  20.88   0.00  1.025
   28    37   1        0.96  18.72   0.00  1.025
99999
FIM
